!-Generator IDFEditor 1.51
!-Option OriginalOrderTop UseSpecialFormat

!-NOTE: All comments with '!-' are ignored by the IDFEditor and are generated automatically.
!-      Use '!' comments if they need to be retained when using the IDFEditor.

RunPeriod,
    DDMM1011,                !- Name
    11,                      !- Begin Month
    10,                      !- Begin Day of Month
    ,                        !- Begin Year
    11,                      !- End Month
    10,                      !- End Day of Month
    ,                        !- End Year
    Sunday,                  !- Day of Week for Start Day
    No,                      !- Use Weather File Holidays and Special Days
    No,                      !- Use Weather File Daylight Saving Period
    No,                      !- Apply Weekend Holiday Rule
    Yes,                     !- Use Weather File Rain Indicators
    Yes;                     !- Use Weather File Snow Indicators

Output:Variable,*,Site Wind Speed,Timestep;
Output:Variable,*,Site Wind Direction,Timestep;
Output:Variable,*,Site Outdoor Air Relative Humidity,Timestep;
Output:Variable,*,Zone Air Relative Humidity,Timestep;

Construction,
    Ventana_Sombra,          !- Name
    Window Material Blind 1, !- Outside Layer
    Clear 3mm;               !- Layer 2

WindowShadingControl,
    ShadingControl,          !- Name
    Thermal Zone: Modelo_Simple,  !- Zone Name
    1,                       !- Shading Control Sequence Number
    ExteriorBlind,           !- Shading Type
    Ventana_Sombra,          !- Construction with Shading Name
    OnIfScheduleAllows,      !- Shading Control Type
    Shadow_Control,          !- Schedule Name
    ,                        !- Setpoint {W/m2, W or deg C}
    Yes,                     !- Shading Control Is Scheduled
    No,                      !- Glare Control Is Active
    ,                        !- Shading Device Material Name
    FixedSlatAngle,          !- Type of Slat Angle Control for Blinds
    ,                        !- Slat Angle Schedule Name
    ,                        !- Setpoint 2 {W/m2 or deg C}
    ,                        !- Daylighting Control Object Name
    Sequential,              !- Multiple Surface Control Type
    Zn001:Wall001:Win001;    !- Fenestration Surface 1 Name

AirflowNetwork:SimulationControl,
    Flujo_Control,           !- Name
    NoMultizoneOrDistribution,  !- AirflowNetwork Control
    SurfaceAverageCalculation,  !- Wind Pressure Coefficient Type
    ,                        !- Height Selection for Local Wind Pressure Calculation
    LowRise,                 !- Building Type
    500,                     !- Maximum Number of Iterations {dimensionless}
    ZeroNodePressures,       !- Initialization Type
    0.0001,                  !- Relative Airflow Convergence Tolerance {dimensionless}
    0.000001,                !- Absolute Airflow Convergence Tolerance {kg/s}
    -.5,                     !- Convergence Acceleration Limit {dimensionless}
    ,                        !- Azimuth Angle of Long Axis of Building {deg}
    1,                       !- Ratio of Building Width Along Short Axis to Width Along Long Axis
    No,                      !- Height Dependence of External Node Temperature
    SkylineLU;               !- Solver

AirflowNetwork:MultiZone:Surface,
    Zn001:Wall001:Win001,    !- Surface Name
    SimpleOpening,           !- Leakage Component Name
    ,                        !- External Node Name
    1,                       !- Window/Door Opening Factor, or Crack Factor {dimensionless}
    Constant,                !- Ventilation Control Mode
    ,                        !- Ventilation Control Zone Temperature Setpoint Schedule Name
    ,                        !- Minimum Venting Open Factor {dimensionless}
    ,                        !- Indoor and Outdoor Temperature Difference Lower Limit For Maximum Venting Open Factor {deltaC}
    100,                     !- Indoor and Outdoor Temperature Difference Upper Limit for Minimum Venting Open Factor {deltaC}
    ,                        !- Indoor and Outdoor Enthalpy Difference Lower Limit For Maximum Venting Open Factor {deltaJ/kg}
    300000,                  !- Indoor and Outdoor Enthalpy Difference Upper Limit for Minimum Venting Open Factor {deltaJ/kg}
    VentN_Control,           !- Venting Availability Schedule Name
    ,                        !- Occupant Ventilation Control Name
    PolygonHeight,           !- Equivalent Rectangle Method
    1;                       !- Equivalent Rectangle Aspect Ratio {dimensionless}

AirflowNetwork:MultiZone:Component:SimpleOpening,
    SimpleOpening,           !- Name
    0.001,                   !- Air Mass Flow Coefficient When Opening is Closed {kg/s-m}
    0.65,                    !- Air Mass Flow Exponent When Opening is Closed {dimensionless}
    0.0001,                  !- Minimum Density Difference for Two-Way Flow {kg/m3}
    1;                       !- Discharge Coefficient {dimensionless}

AirflowNetwork:MultiZone:Zone,
    Thermal Zone: Modelo_Simple,  !- Zone Name
    Constant,                !- Ventilation Control Mode
    ,                        !- Ventilation Control Zone Temperature Setpoint Schedule Name
    ,                        !- Minimum Venting Open Factor {dimensionless}
    ,                        !- Indoor and Outdoor Temperature Difference Lower Limit For Maximum Venting Open Factor {deltaC}
    100,                     !- Indoor and Outdoor Temperature Difference Upper Limit for Minimum Venting Open Factor {deltaC}
    ,                        !- Indoor and Outdoor Enthalpy Difference Lower Limit For Maximum Venting Open Factor {deltaJ/kg}
    300000,                  !- Indoor and Outdoor Enthalpy Difference Upper Limit for Minimum Venting Open Factor {deltaJ/kg}
    ,                        !- Venting Availability Schedule Name
    Standard,                !- Single Sided Wind Pressure Coefficient Algorithm
    10;                      !- Facade Width {m}

Schedule:File,
    VentN_Control,           !- Name
    AviabilityType,          !- Schedule Type Limits Name
    C:\Users\grhen\Documents\GitHub\RLforEP\EP_IDF_Configuration\VentN_Aviability_Sch_0.csv,  !- File Name
    2,                       !- Column Number
    1,                       !- Rows to Skip at Top
    8760,                    !- Number of Hours of Data
    Comma,                   !- Column Separator
    No,                      !- Interpolate to Timestep
    3;                       !- Minutes per Item

FenestrationSurface:Detailed,
    Zn001:Wall002:Win001,    !- Name
    Window,                  !- Surface Type
    Ventana,                 !- Construction Name
    MURO_SUR,                !- Building Surface Name
    ,                        !- Outside Boundary Condition Object
    ,                        !- View Factor to Ground
    ,                        !- Frame and Divider Name
    ,                        !- Multiplier
    ,                        !- Number of Vertices
    2, 0, 2,                            !- X,Y,Z  1 {m}
    2, 0, 1,                            !- X,Y,Z  2 {m}
    3, 0, 1,                            !- X,Y,Z  3 {m}
    3, 0, 2;                            !- X,Y,Z  4 {m}

AirflowNetwork:MultiZone:Surface,
    Zn001:Wall002:Win001,    !- Surface Name
    SimpleOpening,           !- Leakage Component Name
    ,                        !- External Node Name
    1,                       !- Window/Door Opening Factor, or Crack Factor {dimensionless}
    Constant,                !- Ventilation Control Mode
    ,                        !- Ventilation Control Zone Temperature Setpoint Schedule Name
    ,                        !- Minimum Venting Open Factor {dimensionless}
    ,                        !- Indoor and Outdoor Temperature Difference Lower Limit For Maximum Venting Open Factor {deltaC}
    100,                     !- Indoor and Outdoor Temperature Difference Upper Limit for Minimum Venting Open Factor {deltaC}
    ,                        !- Indoor and Outdoor Enthalpy Difference Lower Limit For Maximum Venting Open Factor {deltaJ/kg}
    300000,                  !- Indoor and Outdoor Enthalpy Difference Upper Limit for Minimum Venting Open Factor {deltaJ/kg}
    VentS_Control,           !- Venting Availability Schedule Name
    ,                        !- Occupant Ventilation Control Name
    PolygonHeight,           !- Equivalent Rectangle Method
    1;                       !- Equivalent Rectangle Aspect Ratio {dimensionless}

Schedule:File,
    VentS_Control,           !- Name
    AviabilityType,          !- Schedule Type Limits Name
    C:\Users\grhen\Documents\GitHub\RLforEP\EP_IDF_Configuration\VentS_Aviability_Sch_0.csv,  !- File Name
    2,                       !- Column Number
    1,                       !- Rows to Skip at Top
    8760,                    !- Number of Hours of Data
    Comma,                   !- Column Separator
    No,                      !- Interpolate to Timestep
    3;                       !- Minutes per Item

Output:JSON,
    TimeSeries,              !- Option Type
    Yes,                     !- Output JSON
    No,                      !- Output CBOR
    No;                      !- Output MessagePack

ZoneInfiltration:DesignFlowRate,
    Infiltraciones,          !- Name
    Thermal Zone: Modelo_Simple,  !- Zone or ZoneList Name
    Always On,               !- Schedule Name
    AirChanges/Hour,         !- Design Flow Rate Calculation Method
    ,                        !- Design Flow Rate {m3/s}
    ,                        !- Flow per Zone Floor Area {m3/s-m2}
    ,                        !- Flow per Exterior Surface Area {m3/s-m2}
    2,                       !- Air Changes per Hour {1/hr}
    1,                       !- Constant Term Coefficient
    ,                        !- Temperature Term Coefficient
    ,                        !- Velocity Term Coefficient
    ;                        !- Velocity Squared Term Coefficient

Schedule:Compact,
    Always On,               !- Name
    On/Off,                  !- Schedule Type Limits Name
    Through: 12/31,          !- Field 1
    For: Alldays,            !- Field 2
    Until: 24:00, 1;         !- Field 4

Construction,
    Ventana,                 !- Name
    Clear 3mm;               !- Outside Layer

Material,
    Rev_int,                 !- Name
    Rough,                   !- Roughness
    0.025,                   !- Thickness {m}
    0.93,                    !- Conductivity {W/m-K}
    1900,                    !- Density {kg/m3}
    1050,                    !- Specific Heat {J/kg-K}
    0.93,                    !- Thermal Absorptance
    0.3,                     !- Solar Absorptance
    0.7;                     !- Visible Absorptance

Material,
    Ladrillo,                !- Name
    MediumRough,             !- Roughness
    0.16,                    !- Thickness {m}
    0.91,                    !- Conductivity {W/m-K}
    1800,                    !- Density {kg/m3}
    880,                     !- Specific Heat {J/kg-K}
    0.9,                     !- Thermal Absorptance
    0.3,                     !- Solar Absorptance
    0.3;                     !- Visible Absorptance

Material,
    Poliestireno_5cm,        !- Name
    VerySmooth,              !- Roughness
    0.05,                    !- Thickness {m}
    0.035,                   !- Conductivity {W/m-K}
    20,                      !- Density {kg/m3}
    1674,                    !- Specific Heat {J/kg-K}
    0.9,                     !- Thermal Absorptance
    0.3,                     !- Solar Absorptance
    0.3;                     !- Visible Absorptance

Material,
    Membrana_Gtxt,           !- Name
    Smooth,                  !- Roughness
    0.005,                   !- Thickness {m}
    0.17,                    !- Conductivity {W/m-K}
    1200,                    !- Density {kg/m3}
    1670,                    !- Specific Heat {J/kg-K}
    0.9,                     !- Thermal Absorptance
    0.3,                     !- Solar Absorptance
    0.7;                     !- Visible Absorptance

Material,
    LosaHA,                  !- Name
    Rough,                   !- Roughness
    0.18,                    !- Thickness {m}
    1.16,                    !- Conductivity {W/m-K}
    2000,                    !- Density {kg/m3}
    1000,                    !- Specific Heat {J/kg-K}
    0.93,                    !- Thermal Absorptance
    0.3,                     !- Solar Absorptance
    0.7;                     !- Visible Absorptance

Material,
    Contrapiso,              !- Name
    Rough,                   !- Roughness
    0.02,                    !- Thickness {m}
    1.16,                    !- Conductivity {W/m-K}
    2000,                    !- Density {kg/m3}
    1000,                    !- Specific Heat {J/kg-K}
    0.93,                    !- Thermal Absorptance
    0.3,                     !- Solar Absorptance
    0.7;                     !- Visible Absorptance

Material,
    Piso_Madera,             !- Name
    MediumSmooth,            !- Roughness
    0.02,                    !- Thickness {m}
    0.34,                    !- Conductivity {W/m-K}
    1200,                    !- Density {kg/m3}
    1380,                    !- Specific Heat {J/kg-K}
    0.9,                     !- Thermal Absorptance
    0.7,                     !- Solar Absorptance
    0.7;                     !- Visible Absorptance

Material,
    Rev_ext,                 !- Name
    Rough,                   !- Roughness
    0.025,                   !- Thickness {m}
    1.16,                    !- Conductivity {W/m-K}
    1900,                    !- Density {kg/m3}
    1050,                    !- Specific Heat {J/kg-K}
    0.93,                    !- Thermal Absorptance
    0.3,                     !- Solar Absorptance
    0.7;                     !- Visible Absorptance

Construction,
    Muros,                   !- Name
    Rev_ext,                 !- Outside Layer
    Ladrillo,                !- Layer 2
    Rev_int;                 !- Layer 3

Construction,
    Techo,                   !- Name
    Membrana_Gtxt,           !- Outside Layer
    Poliestireno_5cm,        !- Layer 2
    LosaHA;                  !- Layer 3

Construction,
    Piso,                    !- Name
    Contrapiso,              !- Outside Layer
    Piso_Madera;             !- Layer 2

ScheduleTypeLimits,
    AviabilityType,          !- Name
    0,                       !- Lower Limit Value
    1,                       !- Upper Limit Value
    Discrete,                !- Numeric Type
    Availability;            !- Unit Type

Output:Meter,Cooling:DistrictCooling,Timestep;

Schedule:File,
    Aviability_Control,      !- Name
    AviabilityType,          !- Schedule Type Limits Name
    C:\Users\grhen\Documents\GitHub\RLforEP\EP_IDF_Configuration\RL_Aviability_Sch_0.csv,  !- File Name
    2,                       !- Column Number
    1,                       !- Rows to Skip at Top
    8760,                    !- Number of Hours of Data
    Comma,                   !- Column Separator
    No,                      !- Interpolate to Timestep
    3;                       !- Minutes per Item

Output:EnergyManagementSystem,
    Verbose,                 !- Actuator Availability Dictionary Reporting
    Verbose,                 !- Internal Variable Availability Dictionary Reporting
    Verbose;                 !- EMS Runtime Language Debug Output Level

Output:Meter,Cooling:EnergyTransfer,Timestep;

Schedule:File,
    Shadow_Control,          !- Name
    AviabilityType,          !- Schedule Type Limits Name
    C:\Users\grhen\Documents\GitHub\RLforEP\EP_IDF_Configuration\RL_Control_Sch_0.csv,  !- File Name
    2,                       !- Column Number
    1,                       !- Rows to Skip at Top
    8760,                    !- Number of Hours of Data
    Comma,                   !- Column Separator
    No,                      !- Interpolate to Timestep
    3;                       !- Minutes per Item

ZoneHVAC:EquipmentList,
    Equipos,                 !- Name
    SequentialLoad,          !- Load Distribution Scheme
    ZoneHVAC:IdealLoadsAirSystem,  !- Zone Equipment 1 Object Type
    EquipoClimatizacion,     !- Zone Equipment 1 Name
    1,                       !- Zone Equipment 1 Cooling Sequence
    1,                       !- Zone Equipment 1 Heating or No-Load Sequence
    ,                        !- Zone Equipment 1 Sequential Cooling Fraction Schedule Name
    ;                        !- Zone Equipment 1 Sequential Heating Fraction Schedule Name

ZoneHVAC:EquipmentConnections,
    Thermal Zone: Modelo_Simple,  !- Zone Name
    Equipos,                 !- Zone Conditioning Equipment List Name
    ZoneInlets,              !- Zone Air Inlet Node or NodeList Name
    ,                        !- Zone Air Exhaust Node or NodeList Name
    NODE 4,                  !- Zone Air Node Name
    NODE 5;                  !- Zone Return Air Node or NodeList Name

NodeList,
    ZoneInlets,              !- Name
    NODE 1;                  !- Node 1 Name

Output:Variable,*,Zone Mean Air Temperature,Timestep;
Output:Variable,*,Surface Outside Face Incident Solar Radiation Rate per Area,Timestep;
Output:Variable,*,Surface Shading Device Is On Time Fraction,Timestep;
Output:Variable,*,Surface Window Blind Slat Angle,Timestep;
Output:Variable,*,Surface Window Transmitted Solar Radiation Rate,Timestep;
Output:Variable,*,Surface Window Total Glazing Layers Absorbed Solar Radiation Rate,Timestep;
Output:Variable,*,Surface Window Heat Gain Rate,Timestep;
Output:Variable,*,Surface Window Heat Loss Rate,Timestep;
Output:Variable,*,Surface Window Shading Device Absorbed Solar Radiation Rate,Timestep;
Output:Variable,*,Surface Window System Solar Transmittance,Timestep;
Output:Variable,*,Surface Window System Solar Reflectance,Timestep;
Output:Variable,*,Surface Window System Solar Absorptance,Timestep;
Output:Variable,*,Zone Air System Sensible Cooling Rate,Timestep;
Output:Variable,*,Zone Air System Sensible Heating Rate,Timestep;
Output:Variable,*,Zone Air Temperature,Timestep;
Output:Variable,*,Zone Air Humidity Ratio,Timestep;
Output:Variable,*,Surface Window Transmitted Solar Radiation Energy,Timestep;
Output:Variable,*,Surface Window Transmitted Beam Solar Radiation Energy,Timestep;
Output:Variable,*,Surface Window Transmitted Diffuse Solar Radiation Energy,Timestep;
Output:Variable,*,Surface Window Heat Gain Energy,Timestep;
Output:Variable,*,Surface Window Heat Loss Energy,Timestep;
Output:Variable,*,Site Outdoor Air Drybulb Temperature,Timestep;

ZoneHVAC:IdealLoadsAirSystem,
    EquipoClimatizacion,     !- Name
    Aviability_Control,      !- Availability Schedule Name
    NODE 1,                  !- Zone Supply Air Node Name
    ,                        !- Zone Exhaust Air Node Name
    ,                        !- System Inlet Air Node Name
    50,                      !- Maximum Heating Supply Air Temperature {C}
    0,                       !- Minimum Cooling Supply Air Temperature {C}
    0.0156,                  !- Maximum Heating Supply Air Humidity Ratio {kgWater/kgDryAir}
    0.0077,                  !- Minimum Cooling Supply Air Humidity Ratio {kgWater/kgDryAir}
    LimitCapacity,           !- Heating Limit
    ,                        !- Maximum Heating Air Flow Rate {m3/s}
    1000,                    !- Maximum Sensible Heating Capacity {W}
    LimitCapacity,           !- Cooling Limit
    ,                        !- Maximum Cooling Air Flow Rate {m3/s}
    1000,                    !- Maximum Total Cooling Capacity {W}
    ,                        !- Heating Availability Schedule Name
    ,                        !- Cooling Availability Schedule Name
    ConstantSupplyHumidityRatio,  !- Dehumidification Control Type
    ,                        !- Cooling Sensible Heat Ratio {dimensionless}
    ConstantSupplyHumidityRatio,  !- Humidification Control Type
    ,                        !- Design Specification Outdoor Air Object Name
    ,                        !- Outdoor Air Inlet Node Name
    ,                        !- Demand Controlled Ventilation Type
    ,                        !- Outdoor Air Economizer Type
    ,                        !- Heat Recovery Type
    ,                        !- Sensible Heat Recovery Effectiveness {dimensionless}
    ;                        !- Latent Heat Recovery Effectiveness {dimensionless}

ZoneControl:Thermostat,
    Termostato,              !- Name
    Thermal Zone: Modelo_Simple,  !- Zone or ZoneList Name
    ZONE CONTROL TYPE SCHED, !- Control Type Schedule Name
    ThermostatSetpoint:SingleHeating,  !- Control 1 Object Type
    Heating Setpoint with SB,!- Control 1 Name
    ThermostatSetpoint:SingleCooling,  !- Control 2 Object Type
    Cooling Setpoint with SB;!- Control 2 Name

ScheduleTypeLimits,
    Control Type,            !- Name
    0,                       !- Lower Limit Value
    4,                       !- Upper Limit Value
    Discrete,                !- Numeric Type
    Dimensionless;           !- Unit Type

SurfaceConvectionAlgorithm:Inside,TARP;
SurfaceConvectionAlgorithm:Outside,DOE-2;
HeatBalanceAlgorithm,ConductionTransferFunction,200,0.1,1000;

ScheduleTypeLimits,
    Any Number;              !- Name

Schedule:Compact,
    HEATING SETPOINTS,       !- Name
    Temperature,             !- Schedule Type Limits Name
    Through: 12/31,          !- Field 1
    For: Alldays,            !- Field 2
    Until: 7:00, 40,         !- Field 4
    Until: 17:00, 40,        !- Field 6
    Until: 24:00, 40;        !- Field 8

Schedule:Compact,
    COOLING SETPOINTS,       !- Name
    Temperature,             !- Schedule Type Limits Name
    Through: 12/31,          !- Field 1
    For: Alldays,            !- Field 2
    Until: 7:00, 0,          !- Field 4
    Until: 20:00, 0,         !- Field 6
    Until: 24:00, 0;         !- Field 8

Schedule:Compact,
    ZONE CONTROL TYPE SCHED, !- Name
    Control Type,            !- Schedule Type Limits Name
    Through: 3/31,           !- Field 1
    For: Alldays,            !- Field 2
    Until: 24:00, 2,         !- Field 4
    Through: 9/30,           !- Field 5
    For: Alldays,            !- Field 6
    Until: 24:00, 1,         !- Field 8
    Through: 12/31,          !- Field 9
    For: Alldays,            !- Field 10
    Until: 24:00, 2;         !- Field 12

ThermostatSetpoint:SingleHeating,
    Heating Setpoint with SB,!- Name
    HEATING SETPOINTS;       !- Setpoint Temperature Schedule Name

ThermostatSetpoint:SingleCooling,
    Cooling Setpoint with SB,!- Name
    COOLING SETPOINTS;       !- Setpoint Temperature Schedule Name

ScheduleTypeLimits,
    On/Off,                  !- Name
    0,                       !- Lower Limit Value
    1,                       !- Upper Limit Value
    Discrete,                !- Numeric Type
    Dimensionless;           !- Unit Type

Version,9.5;
Timestep,20;

Building,
    Building 1,              !- Name
    0,                       !- North Axis {deg}
    City,                    !- Terrain
    0.04,                    !- Loads Convergence Tolerance Value {W}
    0.4,                     !- Temperature Convergence Tolerance Value {deltaC}
    FullInteriorAndExteriorWithReflections,  !- Solar Distribution
    25,                      !- Maximum Number of Warmup Days
    3;                       !- Minimum Number of Warmup Days

Zone,
    Thermal Zone: Modelo_Simple,  !- Name
    -0,                      !- Direction of Relative North {deg}
    0, 0, 0;                            !- X,Y,Z  {m}

BuildingSurface:Detailed,
    MURO_ESTE,               !- Name
    Wall,                    !- Surface Type
    Muros,                   !- Construction Name
    Thermal Zone: Modelo_Simple,  !- Zone Name
    Outdoors,                !- Outside Boundary Condition
    ,                        !- Outside Boundary Condition Object
    SunExposed,              !- Sun Exposure
    WindExposed,             !- Wind Exposure
    ,                        !- View Factor to Ground
    ,                        !- Number of Vertices
    5, 0, 2.5,                          !- X,Y,Z  1 {m}
    5, 0, 0,                            !- X,Y,Z  2 {m}
    5, 5, 0,                            !- X,Y,Z  3 {m}
    5, 5, 2.5;                          !- X,Y,Z  4 {m}

BuildingSurface:Detailed,
    MURO_NORTE,              !- Name
    Wall,                    !- Surface Type
    Muros,                   !- Construction Name
    Thermal Zone: Modelo_Simple,  !- Zone Name
    Outdoors,                !- Outside Boundary Condition
    ,                        !- Outside Boundary Condition Object
    SunExposed,              !- Sun Exposure
    WindExposed,             !- Wind Exposure
    ,                        !- View Factor to Ground
    ,                        !- Number of Vertices
    5, 5, 2.5,                          !- X,Y,Z  1 {m}
    5, 5, 0,                            !- X,Y,Z  2 {m}
    0, 5, 0,                            !- X,Y,Z  3 {m}
    0, 5, 2.5;                          !- X,Y,Z  4 {m}

FenestrationSurface:Detailed,
    Zn001:Wall001:Win001,    !- Name
    Window,                  !- Surface Type
    Ventana,                 !- Construction Name
    MURO_NORTE,              !- Building Surface Name
    ,                        !- Outside Boundary Condition Object
    ,                        !- View Factor to Ground
    ,                        !- Frame and Divider Name
    ,                        !- Multiplier
    ,                        !- Number of Vertices
    3.5, 5, 2,                          !- X,Y,Z  1 {m}
    3.5, 5, 0.5,                        !- X,Y,Z  2 {m}
    1.5, 5, 0.5,                        !- X,Y,Z  3 {m}
    1.5, 5, 2;                          !- X,Y,Z  4 {m}

BuildingSurface:Detailed,
    MURO_OESTE,              !- Name
    Wall,                    !- Surface Type
    Muros,                   !- Construction Name
    Thermal Zone: Modelo_Simple,  !- Zone Name
    Outdoors,                !- Outside Boundary Condition
    ,                        !- Outside Boundary Condition Object
    SunExposed,              !- Sun Exposure
    WindExposed,             !- Wind Exposure
    ,                        !- View Factor to Ground
    ,                        !- Number of Vertices
    0, 5, 2.5,                          !- X,Y,Z  1 {m}
    0, 5, 0,                            !- X,Y,Z  2 {m}
    0, 0, 0,                            !- X,Y,Z  3 {m}
    0, 0, 2.5;                          !- X,Y,Z  4 {m}

BuildingSurface:Detailed,
    MURO_SUR,                !- Name
    Wall,                    !- Surface Type
    Muros,                   !- Construction Name
    Thermal Zone: Modelo_Simple,  !- Zone Name
    Outdoors,                !- Outside Boundary Condition
    ,                        !- Outside Boundary Condition Object
    SunExposed,              !- Sun Exposure
    WindExposed,             !- Wind Exposure
    ,                        !- View Factor to Ground
    ,                        !- Number of Vertices
    0, 0, 2.5,                          !- X,Y,Z  1 {m}
    0, 0, 0,                            !- X,Y,Z  2 {m}
    5, 0, 0,                            !- X,Y,Z  3 {m}
    5, 0, 2.5;                          !- X,Y,Z  4 {m}

BuildingSurface:Detailed,
    PISO,                    !- Name
    Floor,                   !- Surface Type
    Piso,                    !- Construction Name
    Thermal Zone: Modelo_Simple,  !- Zone Name
    Ground,                  !- Outside Boundary Condition
    ,                        !- Outside Boundary Condition Object
    NoSun,                   !- Sun Exposure
    NoWind,                  !- Wind Exposure
    ,                        !- View Factor to Ground
    ,                        !- Number of Vertices
    5, 5, 0,                            !- X,Y,Z  1 {m}
    5, 0, 0,                            !- X,Y,Z  2 {m}
    0, 0, 0,                            !- X,Y,Z  3 {m}
    0, 5, 0;                            !- X,Y,Z  4 {m}

BuildingSurface:Detailed,
    TECHO,                   !- Name
    Roof,                    !- Surface Type
    Techo,                   !- Construction Name
    Thermal Zone: Modelo_Simple,  !- Zone Name
    Outdoors,                !- Outside Boundary Condition
    ,                        !- Outside Boundary Condition Object
    SunExposed,              !- Sun Exposure
    WindExposed,             !- Wind Exposure
    ,                        !- View Factor to Ground
    ,                        !- Number of Vertices
    5, 0, 2.5,                          !- X,Y,Z  1 {m}
    5, 5, 2.5,                          !- X,Y,Z  2 {m}
    0, 5, 2.5,                          !- X,Y,Z  3 {m}
    0, 0, 2.5;                          !- X,Y,Z  4 {m}

SimulationControl,
    No,                      !- Do Zone Sizing Calculation
    No,                      !- Do System Sizing Calculation
    No,                      !- Do Plant Sizing Calculation
    No,                      !- Run Simulation for Sizing Periods
    Yes,                     !- Run Simulation for Weather File Run Periods
    No,                      !- Do HVAC Sizing Simulation for Sizing Periods
    1;                       !- Maximum Number of HVAC Sizing Simulation Passes

Output:Table:SummaryReports,
    AllSummary;              !- Report 1 Name

GlobalGeometryRules,
    UpperLeftCorner,         !- Starting Vertex Position
    Counterclockwise,        !- Vertex Entry Direction
    Relative,                !- Coordinate System
    Relative,                !- Daylighting Reference Point Coordinate System
    Relative;                !- Rectangular Surface Coordinate System

WindowMaterial:Blind,
    Window Material Blind 1, !- Name
    Horizontal,              !- Slat Orientation
    0.025,                   !- Slat Width {m}
    0.01875,                 !- Slat Separation {m}
    0.001,                   !- Slat Thickness {m}